LAMMPS (23 Jun 2022 - Update 1)
fix atomify all atomify
# Atomify commands start with #/

# Move camera to a nice position
#/camera position 7.0 8.0 24.0
#/camera target 7.0 8.0 24.0

# Set atom size and color
#/atom 1 calcium
#/atom 2 calcium
#/atom 3 chlorine
#/atom 4 hydrogen
#/atom 5 hydrogen
#/atom 6 sodium
#/atom 7 oxygen
#/atom 8 oxygen
#/atom 9 oxygen
#/atom 10 oxygen
#/atom 11 oxygen
#/atom 12 silicon
#/atom 13 silicon

# ---------- SETTINGS / SYSTEM ----------
units           real
atom_style      full
boundary        p p p

read_data       2.CSHmodel_final.data     # write the name of your data file
Reading data file ...
  orthogonal box = (-0.29192 -0.214121 -0.895644) to (13.17848 12.204921 47.091722)
  reading atoms ...
  657 atoms
  scanning bonds ...
  scanning angles ...
  reading bonds ...
  295 bonds
  reading angles ...
  140 angles
Finding 1-2 1-3 1-4 neighbors ...
     3 = max # of 1-2 neighbors
     3 = max # of 1-3 neighbors
     3 = max # of 1-4 neighbors
     5 = max # of special neighbors

neighbor        2.0 bin
neigh_modify    delay 10 every 1

# ---- Non bonded interactions  ----
pair_style      lj/cut/coul/long 10.0 10.0     #lennard-jones and coulomb cut offs
kspace_style    pppm 1.0e-4                    # coulomb long range solver and accuracy

pair_coeff    1 1  0.0000050301 5.5666638636 # Ca1
pair_coeff    2 2  0.0000050219 5.5624343529 # Ca2
pair_coeff    3 3 0.1000998933 4.3999709805 # Cl
pair_coeff    4 4 0.0000000000 0.0000000000 # H
pair_coeff    5 5 0.0000000000 0.0000000000 # Hw
pair_coeff    6 6 0.1300999871 2.3500126639 # Na
pair_coeff    7 7 0.1554164124 3.1655200879 # O
pair_coeff    8 8 0.1554164124 3.1655200879 # Oca
pair_coeff    9 9 0.1554164124 3.1655200879 # Oh
pair_coeff    10 10 0.1554164124 3.1655200879 # Osi
pair_coeff    11 11 0.1554164124 3.1655200879 # Ow
pair_coeff    12 12 0.0000018402 3.3019566252 # si1
pair_coeff    13 13 0.0000018402 3.3019566252 # si2

# ------ Bonded interactions  -------
bond_style      harmonic
angle_style     harmonic

bond_coeff      1  450.0  1.0        # SPC model: Oh–H bond
bond_coeff      2  450.0  1.0        # SPC model: Ow–Hw bond
angle_coeff     1  55.0  109.47      # SPC model: Hw–Ow–Hw angle

# ---------- FAST EQUILIBRATION ----------
min_style       cg
minimize        1.0e-3 1.0e-4 500 1000
PPPM initialization ...
  G vector (1/distance) = 0.28061712
  grid = 10 9 24
  stencil order = 5
  estimated absolute RMS force accuracy = 0.027008575
  estimated relative force accuracy = 8.1335522e-05
  3d grid and FFT values/proc = 8432 2160
Generated 78 of 78 mixed pair_coeff terms from geometric mixing rule
  update every 1 steps, delay 0 steps, check yes
Step          Temp          E_pair         E_mol          TotEng         Press
0   0              277673.81      335.37204      278009.18      11204198
Loop time of 1.2153 on 1 procs for 31 steps with 657 atoms

Minimization stats:
  Stopping criterion = energy tolerance
  Energy initial, next-to-last, final =
  Force two-norm initial, final = 2444961.3 305.22911
  Force max component initial, final = 627848.89 87.282222
  Final line search alpha, max atom move = 0.00098246456 0.08575169
  Iterations, force evaluations = 31 40

velocity        all create 298.0 4928459 rot yes mom yes
fix             npt all npt temp 298.0 298.0 100.0 aniso 1 1 1000
thermo          1000
thermo_style    custom step time temp pe ke etotal press density lx ly lz vol

timestep        1
run             100000
PPPM initialization ...
  G vector (1/distance) = 0.28061712
  grid = 10 9 24
  stencil order = 5
  estimated absolute RMS force accuracy = 0.027008575
  estimated relative force accuracy = 8.1335522e-05
  3d grid and FFT values/proc = 8432 2160
Generated 78 of 78 mixed pair_coeff terms from geometric mixing rule
Step          Time           Temp          PotEng         KinEng         TotEng         Press         Density           Lx             Ly             Lz           Volume
31   31             298           -53014.021      582.7126      -52431.308      16665.44       1.6187333      13.4704        12.419042      47.987366      8027.7807
Averages over the last 51 of 102 rows, steps 51000 to 100031:
Temp PotEng KinEng TotEng Press Density Lx Ly Lz Volume
298.267 -54433 583.234 -53849.7 -674.237 1.91339 13.5534 12.3 40.7437 6792.17
Loop time of 485.571 on 1 procs for 100000 steps with 657 atoms

unfix           npt

# --------- MSD & DIFFUSION COEFFICIENTS ----------
group           Cl_atoms type 3
5 atoms in group Cl_atoms
compute         msdCl Cl_atoms msd   # compute msd produce: [1]=MSDx, [2]=MSDy, [3]=MSDz, [4]=MSDtot  (en Å^2)

# --------- Density profile in z ----------
variable        dz_A    equal 0.5
compute         zbin Cl_atoms chunk/atom bin/1d z lower 0.5 units box
fix             profA Cl_atoms ave/chunk 200 20 4000 zbin density/number file density_z.dat ave running     # Density (particles/Å^3).

# ---------- PRODUCTION ----------
fix             nvt all nvt temp 298.0 298.0 100.0
dump            trj all custom 1000 traj.lammpstrj id element xu yu zu
dump_modify     trj element Ca Ca Cl H H Na O O O O O Si Si
thermo_style    custom step time temp etotal c_msdCl[1] c_msdCl[2] c_msdCl[3] c_msdCl[4]
thermo          1000
run             100000
PPPM initialization ...
  G vector (1/distance) = 0.28600809
  grid = 10 9 24
  stencil order = 5
  estimated absolute RMS force accuracy = 0.02158042
  estimated relative force accuracy = 6.4988793e-05
  3d grid and FFT values/proc = 8432 2160
Generated 78 of 78 mixed pair_coeff terms from geometric mixing rule
Step          Time           Temp          TotEng       c_msdCl[1]     c_msdCl[2]     c_msdCl[3]     c_msdCl[4]
100031   100031         284.93496     -53865.653      0              0              0              0
Averages over the last 51 of 102 rows, steps 151000 to 200031:
Temp TotEng c_msdCl[1] c_msdCl[2] c_msdCl[3] c_msdCl[4]
297.903 -53862.2 7.15981 6.71823 6.19113 20.0692
Loop time of 457.494 on 1 procs for 100000 steps with 657 atoms
